Version 4
SHEET 1 880 868
WIRE -768 -224 -1024 -224
WIRE -640 -224 -768 -224
WIRE -768 -192 -768 -224
WIRE -640 -192 -640 -224
WIRE -1024 -176 -1024 -224
WIRE -1024 -176 -1152 -176
WIRE -768 -80 -768 -112
WIRE -640 -80 -640 -112
WIRE -96 -48 -96 -80
WIRE 528 -48 -96 -48
WIRE -96 -16 -96 -48
WIRE 496 -16 0 -16
WIRE -768 32 -768 0
WIRE -640 32 -640 0
WIRE 112 64 80 64
WIRE -1152 80 -1152 -176
WIRE -1024 80 -1024 -176
WIRE -96 96 -96 64
WIRE 0 96 0 -16
WIRE 0 96 -96 96
WIRE 80 96 80 64
WIRE -96 128 -96 96
WIRE 112 128 -96 128
WIRE 528 128 528 -48
WIRE 528 128 336 128
WIRE -768 144 -768 112
WIRE -640 144 -640 112
WIRE -96 160 -96 128
WIRE -1152 192 -1152 160
WIRE -1024 192 -1024 160
WIRE 496 192 496 -16
WIRE 496 192 336 192
WIRE -768 256 -768 224
WIRE -640 256 -640 224
WIRE -96 256 -96 224
WIRE 80 256 48 256
WIRE 112 256 80 256
WIRE 368 256 336 256
WIRE 368 288 368 256
WIRE -1152 304 -1152 272
WIRE -1024 304 -1024 272
WIRE -32 352 -32 320
WIRE -32 352 -112 352
WIRE 48 352 48 256
WIRE 48 352 -32 352
WIRE -768 368 -768 336
WIRE -640 368 -640 336
WIRE -640 368 -768 368
WIRE -544 368 -640 368
WIRE -320 368 -320 336
WIRE -320 368 -352 368
WIRE -288 368 -320 368
WIRE -192 368 -208 368
WIRE -640 384 -640 368
WIRE -112 384 -112 352
WIRE 368 384 368 352
WIRE -768 400 -768 368
WIRE -1152 416 -1152 384
WIRE -1024 416 -1024 384
WIRE -320 416 -320 368
WIRE -224 416 -320 416
WIRE -576 464 -640 464
WIRE -544 464 -576 464
WIRE -320 464 -352 464
WIRE -192 464 -192 368
WIRE -160 464 -192 464
WIRE -768 496 -768 464
WIRE -576 496 -576 464
WIRE -320 496 -320 464
WIRE -112 512 -112 480
WIRE -1152 528 -1152 496
WIRE -1024 528 -1024 496
WIRE -1024 528 -1152 528
WIRE -608 528 -1024 528
WIRE 240 528 240 496
WIRE 688 528 688 496
WIRE -1152 560 -1152 528
WIRE -1024 560 -1024 528
WIRE -576 592 -576 560
WIRE 240 624 240 592
WIRE 688 624 688 592
WIRE -1152 656 -1152 624
WIRE -1024 672 -1024 640
WIRE -224 704 -224 416
WIRE 80 704 -224 704
WIRE 192 704 160 704
WIRE 496 704 448 704
WIRE 608 704 576 704
WIRE 640 704 608 704
WIRE 608 736 608 704
WIRE 240 752 240 720
WIRE -1024 800 -1024 752
WIRE 608 832 608 816
WIRE 688 832 688 720
WIRE 688 832 608 832
WIRE 688 848 688 832
FLAG 80 96 0
FLAG -96 256 0
FLAG 368 384 0
FLAG -336 -80 VDD
FLAG -336 0 0
FLAG -96 -160 VDD
FLAG 112 192 VOUT
FLAG 336 64 VDD
FLAG -320 256 VDD
FLAG -320 496 0
FLAG -1024 800 0
FLAG -576 592 0
FLAG -1440 0 0
FLAG -1440 -80 TS+
FLAG -1152 -176 TS+
FLAG 80 256 RST
FLAG -32 240 VDD
FLAG -112 512 0
FLAG -768 496 0
FLAG -1152 656 0
FLAG 240 416 VDD
FLAG 240 752 0
FLAG 688 416 VDD
FLAG 688 848 0
FLAG 448 704 VOUT
SYMBOL Misc\\NE555 224 160 R0
SYMATTR InstName U1
SYMBOL res -112 -176 R0
SYMATTR InstName R1
SYMATTR Value 10k
SYMBOL res -112 -32 R0
SYMATTR InstName R2
SYMATTR Value 180k
SYMBOL cap 352 288 R0
SYMATTR InstName C2
SYMATTR Value 0.1µ
SYMBOL voltage -336 -96 R0
WINDOW 123 0 0 Left 0
WINDOW 39 0 0 Left 0
SYMATTR InstName V1
SYMATTR Value 12
SYMBOL Optos\\TLP291_SE -448 416 R0
SYMATTR InstName U2
SYMBOL res -336 240 R0
SYMATTR InstName R3
SYMATTR Value 1Meg
SYMBOL res -1040 64 R0
SYMATTR InstName R6
SYMATTR Value 220k
SYMBOL res -1040 176 R0
SYMATTR InstName R7
SYMATTR Value 220k
SYMBOL res -1040 288 R0
SYMATTR InstName R8
SYMATTR Value 220k
SYMBOL res -1040 400 R0
SYMATTR InstName R9
SYMATTR Value 220k
SYMBOL References\\TL431 -576 528 M0
SYMATTR InstName U3
SYMBOL res -1040 544 R0
SYMATTR InstName R10
SYMATTR Value 15.4k
SYMBOL res -1168 64 R0
SYMATTR InstName R13
SYMATTR Value 220k
SYMBOL res -1168 176 R0
SYMATTR InstName R14
SYMATTR Value 220k
SYMBOL res -1168 288 R0
SYMATTR InstName R15
SYMATTR Value 220k
SYMBOL res -1168 400 R0
SYMATTR InstName R16
SYMATTR Value 220k
SYMBOL res -656 -208 R0
SYMATTR InstName R17
SYMATTR Value 15k
SYMBOL res -656 -96 R0
SYMATTR InstName R18
SYMATTR Value 15k
SYMBOL res -656 16 R0
SYMATTR InstName R19
SYMATTR Value 15k
SYMBOL res -656 128 R0
SYMATTR InstName R20
SYMATTR Value 15k
SYMBOL res -656 240 R0
SYMATTR InstName R21
SYMATTR Value 15k
SYMBOL res -784 -208 R0
SYMATTR InstName R22
SYMATTR Value 15k
SYMBOL res -784 -96 R0
SYMATTR InstName R23
SYMATTR Value 15k
SYMBOL res -784 16 R0
SYMATTR InstName R24
SYMATTR Value 15k
SYMBOL res -784 128 R0
SYMATTR InstName R25
SYMATTR Value 15k
SYMBOL res -784 240 R0
SYMATTR InstName R26
SYMATTR Value 15k
SYMBOL voltage -1440 -96 R0
WINDOW 123 0 0 Left 0
WINDOW 39 0 0 Left 0
SYMATTR InstName V2
SYMATTR Value PWL(0.5 0 1.5 400)
SYMBOL res -656 368 R0
SYMATTR InstName R27
SYMATTR Value 10k
SYMBOL res -1040 656 R0
SYMATTR InstName R4
SYMATTR Value 3.9k
SYMBOL nmos -160 384 R0
SYMATTR InstName M1
SYMATTR Value 2N7002
SYMBOL res -192 352 R90
WINDOW 0 0 56 VBottom 2
WINDOW 3 32 56 VTop 2
SYMATTR InstName R5
SYMATTR Value 100
SYMBOL res -48 224 R0
SYMATTR InstName R11
SYMATTR Value 100k
SYMBOL zener -752 464 R180
WINDOW 0 24 64 Left 2
WINDOW 3 24 0 Left 2
SYMATTR InstName D1
SYMATTR Value UFZV24B
SYMBOL zener -1136 624 R180
WINDOW 0 24 64 Left 2
WINDOW 3 24 0 Left 2
SYMATTR InstName D2
SYMATTR Value UFZV24B
SYMBOL cap -112 160 R0
SYMATTR InstName C1
SYMATTR Value 1µ
SYMBOL nmos 192 624 R0
SYMATTR InstName M2
SYMATTR Value 2N7002
SYMBOL res 176 688 R90
WINDOW 0 0 56 VBottom 2
WINDOW 3 32 56 VTop 2
SYMATTR InstName R12
SYMATTR Value 100
SYMBOL res 256 512 R180
WINDOW 0 36 76 Left 2
WINDOW 3 36 40 Left 2
SYMATTR InstName R28
SYMATTR Value 10k
SYMBOL LED 224 528 R0
SYMATTR InstName D3
SYMBOL nmos 640 624 R0
SYMATTR InstName M3
SYMATTR Value 2N7002
SYMBOL res 592 688 R90
WINDOW 0 0 56 VBottom 2
WINDOW 3 32 56 VTop 2
SYMATTR InstName R29
SYMATTR Value 100
SYMBOL res 592 720 R0
SYMATTR InstName R30
SYMATTR Value 1Meg
SYMBOL res 704 512 R180
WINDOW 0 36 76 Left 2
WINDOW 3 36 40 Left 2
SYMATTR InstName R31
SYMATTR Value 10k
SYMBOL LED 672 528 R0
SYMATTR InstName D4
TEXT -488 136 Left 2 !.tran 1.5 startup
